sol/case30pwl.m
function mpc = case30pwl
%CASE30PWL

%% MATPOWER Case Format : Version 2
mpc.version = '2';

%%-----  Power Flow Data  -----%%
%% system MVA base
mpc.baseMVA = 100;

%% bus data
%	bus_i	type	Pd	Qd	Gs	Bs	area	Vm	Va	baseKV	zone	Vmax	Vmin	lam_P	lam_Q	mu_Vmax	mu_Vmin
mpc.bus = [
	1	3	0	0	0	0	1	0.983607682	0	135	1	1.05	0.95	43.6247	-0.0000	0.0000	0.0000;
	2	2	21.7	12.7	0	0	1	0.979377875	-0.809667497	135	1	1.1	0.95	44.0000	-0.0000	0.0000	0.0000;
	3	1	2.4	1.2	0	0	1	0.979857128	-1.56161141	135	1	1.05	0.95	44.3359	-0.1168	0.0000	0.0000;
	4	1	7.6	1.6	0	0	1	0.979570227	-1.83525754	135	1	1.05	0.95	44.4570	-0.1471	0.0000	0.0000;
	5	1	0	0	0	0.19	1	0.972114214	-2.00159363	135	1	1.05	0.95	44.4824	0.0400	0.0000	0.0000;
	6	1	0	0	0	0	1	0.974211589	-2.18637073	135	1	1.05	0.95	44.6036	-0.0896	0.0000	0.0000;
	7	1	22.8	10.9	0	0	1	0.963893654	-2.66841505	135	1	1.05	0.95	44.9695	0.1444	0.0000	0.0000;
	8	1	30	30	0	0	1	0.963000581	-2.63582917	135	1	1.05	0.95	64.9064	18.0384	0.0000	0.0000;
	9	1	0	0	0	0	1	0.982819699	-2.01112801	135	1	1.05	0.95	45.2415	0.6220	0.0000	0.0000;
	10	1	5.8	2	0	0	3	0.987332329	-1.9205541	135	1	1.05	0.95	45.5696	0.9913	0.0000	0.0000;
	11	1	0	0	0	0	1	0.982819699	-2.01112801	135	1	1.05	0.95	45.2415	0.6220	0.0000	0.0000;
	12	1	11.2	7.5	0	0	2	1.01946645	-1.14991713	135	1	1.05	0.95	44.5543	0.0004	0.0000	0.0000;
	13	2	0	0	0	0	2	1.07100045	1.49580519	135	1	1.1	0.95	44.5543	0.0003	0.0000	0.0000;
	14	1	6.2	1.6	0	0	2	1.00777671	-1.70286422	135	1	1.05	0.95	45.1611	0.2164	0.0000	0.0000;
	15	1	8.2	2.5	0	0	2	1.00938063	-1.46907551	135	1	1.05	0.95	44.9726	0.2792	0.0000	0.0000;
	16	1	3.5	1.8	0	0	2	0.998445439	-1.76794383	135	1	1.05	0.95	45.2748	0.5994	0.0000	0.0000;
	17	1	9	5.8	0	0	2	0.985244577	-2.09329618	135	1	1.05	0.95	45.6817	1.0080	0.0000	0.0000;
	18	1	3.2	0.9	0	0	2	0.988685175	-2.37123216	135	1	1.05	0.95	45.9001	0.7946	0.0000	0.0000;
	19	1	9.5	3.4	0	0	2	0.980149415	-2.71958706	135	1	1.05	0.95	46.2374	1.0215	0.0000	0.0000;
	20	1	2.2	0.7	0	0	2	0.981047486	-2.57806421	135	1	1.05	0.95	46.1193	1.0316	0.0000	0.0000;
	21	1	17.5	11.2	0	0	3	0.994062632	-1.62447776	135	1	1.05	0.95	46.2338	1.4084	0.0000	0.0000;
	22	2	0	0	0	0	3	1.00014809	-1.40831114	135	1	1.1	0.95	44.0000	-0.0000	0.0000	0.0000;
	23	2	3.2	1.6	0	0	2	1.02665449	-0.230817551	135	1	1.1	0.95	44.0000	-0.0000	0.0000	0.0000;
	24	1	8.7	6.7	0	0.04	3	1.00965281	-1.01407632	135	1	1.05	0.95	44.8893	0.2523	0.0000	0.0000;
	25	1	0	0	0	0	3	1.04107483	-0.304843403	135	1	1.05	0.95	46.2518	0.1623	0.0000	0.0000;
	26	1	3.5	2.3	0	0	3	1.02396811	-0.710636667	135	1	1.05	0.95	47.0374	0.6865	0.0000	0.0000;
	27	2	0	0	0	0	3	1.06895082	0.402880014	135	1	1.1	0.95	46.7532	0.0000	0.0000	0.0000;
	28	1	0	0	0	0	1	0.983744244	-2.16044754	135	1	1.05	0.95	48.7873	3.3399	0.0000	0.0000;
	29	1	2.4	0.9	0	0	3	1.04999902	-0.731809135	135	1	1.05	0.95	47.4350	-0.5620	307.1142	0.0000;
	30	1	10.6	1.9	0	0	3	1.03911251	-1.52530511	135	1	1.05	0.95	48.4146	-0.0579	0.0000	0.0000;
];

%% generator data
%	bus	Pg	Qg	Qmax	Qmin	Vg	mBase	status	Pmax	Pmin	Pc1	Pc2	Qc1min	Qc1max	Qc2min	Qc2max	ramp_agc	ramp_10	ramp_30	ramp_q	apf	mu_Pmax	mu_Pmin	mu_Qmax	mu_Qmin
mpc.gen = [
	1	35.9999695	-4.25021339	150	-20	0.983607682	100	1	80	0	0	0	0	0	0	0	0	0	0	0	0	0.0000	0.0000	0.0000	0.0000;
	2	30.7654043	5.8938117	60	-20	0.979377875	100	1	80	0	0	0	0	0	0	0	0	0	0	0	0	0.0000	0.0000	0.0000	0.0000;
	22	30.2046952	19.7895184	62.5	-15	1.00014809	100	1	50	0	0	0	0	0	0	0	0	0	0	0	0	0.0000	0.0000	0.0000	0.0000;
	27	35.9999819	34.7940358	48.7	-15	1.06895082	100	1	55	0	0	0	0	0	0	0	0	0	0	0	0	0.0000	0.0000	0.0000	0.0000;
	23	22.5542191	7.53761973	40	-10	1.02665449	100	1	30	0	0	0	0	0	0	0	0	0	0	0	0	0.0000	0.0000	0.0000	0.0000;
	13	35.9999741	40.2546904	44.7	-15	1.07100045	100	1	40	0	0	0	0	0	0	0	0	0	0	0	0	0.0000	0.0000	0.0000	0.0000;
];

%% branch data
%	fbus	tbus	r	x	b	rateA	rateB	rateC	ratio	angle	status	angmin	angmax	Pf	Qf	Pt	Qt	mu_Sf	mu_St	mu_angmin	mu_angmax
mpc.branch = [
	1	2	0.02	0.06	0.03	130	130	130	0	0	1	-360	360	22.5473	-1.8726	-22.4421	-0.7021	0.0000	0.0000	0.0000	0.0000;
	1	3	0.05	0.19	0.02	130	130	130	0	0	1	-360	360	13.4527	-2.3777	-13.3582	0.8094	0.0000	0.0000	0.0000	0.0000;
	2	4	0.06	0.17	0.02	65	65	65	0	0	1	-360	360	8.9757	-4.1475	-8.9190	2.3896	0.0000	0.0000	0.0000	0.0000;
	3	4	0.01	0.04	0	130	130	130	0	0	1	-360	360	10.9582	-2.0094	-10.9452	2.0611	0.0000	0.0000	0.0000	0.0000;
	2	5	0.05	0.2	0.02	130	130	130	0	0	1	-360	360	10.1809	0.1555	-10.1262	-1.8410	0.0000	0.0000	0.0000	0.0000;
	2	6	0.06	0.18	0.02	65	65	65	0	0	1	-360	360	12.3509	-2.1122	-12.2547	0.4927	0.0000	0.0000	0.0000	0.0000;
	4	6	0.01	0.04	0	90	90	90	0	0	1	-360	360	16.8584	8.9531	-16.8204	-8.8012	0.0000	0.0000	0.0000	0.0000;
	5	7	0.05	0.12	0.01	70	70	70	0	0	1	-360	360	10.1262	2.0206	-10.0687	-2.8195	0.0000	0.0000	0.0000	0.0000;
	6	7	0.03	0.08	0.01	130	130	130	0	0	1	-360	360	12.8024	7.3309	-12.7313	-8.0805	0.0000	0.0000	0.0000	0.0000;
	6	8	0.01	0.04	0	32	32	32	0	0	1	-360	360	23.7579	21.4374	-23.6500	-21.0059	30.3085	0.0008	0.0000	0.0000;
	6	9	0	0.21	0	65	65	65	0	0	1	-360	360	-1.3945	-3.9913	1.3945	4.0308	0.0000	0.0000	0.0000	0.0000;
	6	10	0	0.56	0	32	32	32	0	0	1	-360	360	-0.7969	-2.2807	0.7969	2.3152	0.0000	0.0000	0.0000	0.0000;
	9	11	0	0.21	0	65	65	65	0	0	1	-360	360	0.0000	0.0000	0.0000	0.0000	0.0000	0.0000	0.0000	0.0000;
	9	10	0	0.11	0	65	65	65	0	0	1	-360	360	-1.3945	-4.0308	1.3945	4.0515	0.0000	0.0000	0.0000	0.0000;
	4	12	0	0.26	0	65	65	65	0	0	1	-360	360	-4.5942	-15.0037	4.5942	15.6709	0.0000	0.0000	0.0000	0.0000;
	12	13	0	0.14	0	65	65	65	0	0	1	-360	360	-35.9999	-36.6952	35.9999	40.2548	0.0000	0.0000	0.0000	0.0000;
	12	14	0.12	0.26	0	32	32	32	0	0	1	-360	360	4.8948	2.3429	-4.8608	-2.2692	0.0000	0.0000	0.0000	0.0000;
	12	15	0.07	0.13	0	32	32	32	0	0	1	-360	360	6.7249	4.3005	-6.6820	-4.2208	0.0000	0.0000	0.0000	0.0000;
	12	16	0.09	0.2	0	32	32	32	0	0	1	-360	360	8.5861	6.8810	-8.4812	-6.6480	0.0000	0.0000	0.0000	0.0000;
	14	15	0.22	0.2	0	16	16	16	0	0	1	-360	360	-1.3392	0.6692	1.3441	-0.6648	0.0000	0.0000	0.0000	0.0000;
	16	17	0.08	0.19	0	16	16	16	0	0	1	-360	360	4.9812	4.8480	-4.9425	-4.7559	0.0000	0.0000	0.0000	0.0000;
	15	18	0.11	0.22	0	16	16	16	0	0	1	-360	360	9.5344	4.7843	-9.4115	-4.5386	0.0000	0.0000	0.0000	0.0000;
	18	19	0.06	0.13	0	16	16	16	0	0	1	-360	360	6.2115	3.6386	-6.1797	-3.5697	0.0000	0.0000	0.0000	0.0000;
	19	20	0.03	0.07	0	32	32	32	0	0	1	-360	360	-3.3203	0.1697	3.3238	-0.1616	0.0000	0.0000	0.0000	0.0000;
	10	20	0.09	0.21	0	32	32	32	0	0	1	-360	360	5.5526	0.6056	-5.5238	-0.5384	0.0000	0.0000	0.0000	0.0000;
	10	17	0.03	0.08	0	32	32	32	0	0	1	-360	360	4.0630	1.0585	-4.0575	-1.0441	0.0000	0.0000	0.0000	0.0000;
	10	21	0.03	0.07	0	32	32	32	0	0	1	-360	360	-9.5514	-5.3808	9.5884	5.4671	0.0000	0.0000	0.0000	0.0000;
	10	22	0.07	0.15	0	32	32	32	0	0	1	-360	360	-8.0555	-4.6500	8.1177	4.7832	0.0000	0.0000	0.0000	0.0000;
	21	22	0.01	0.02	0	32	32	32	0	0	1	-360	360	-27.0884	-16.6671	27.1907	16.8718	0.0016	2.6488	0.0000	0.0000;
	15	23	0.1	0.2	0	16	16	16	0	0	1	-360	360	-12.3964	-2.3987	12.5529	2.7117	0.0000	0.0000	0.0000	0.0000;
	22	24	0.12	0.18	0	16	16	16	0	0	1	-360	360	-5.1037	-1.8654	5.1391	1.9186	0.0000	0.0000	0.0000	0.0000;
	23	24	0.13	0.27	0	16	16	16	0	0	1	-360	360	6.8013	3.2259	-6.7314	-3.0808	0.0000	0.0000	0.0000	0.0000;
	24	25	0.19	0.33	0	16	16	16	0	0	1	-360	360	-7.1077	-5.4970	7.2582	5.7584	0.0000	0.0000	0.0000	0.0000;
	25	26	0.25	0.38	0	16	16	16	0	0	1	-360	360	3.5418	2.3636	-3.5000	-2.3000	0.0000	0.0000	0.0000	0.0000;
	25	27	0.11	0.21	0	16	16	16	0	0	1	-360	360	-10.8000	-8.1220	10.9853	8.4758	0.0000	0.0000	0.0000	0.0000;
	28	27	0	0.4	0	65	65	65	0	0	1	-360	360	-11.7575	-20.6923	11.7575	23.0335	0.0000	0.0000	0.0000	0.0000;
	27	29	0.22	0.42	0	16	16	16	0	0	1	-360	360	6.1568	1.6509	-6.0786	-1.5015	0.0000	0.0000	0.0000	0.0000;
	27	30	0.32	0.6	0	16	16	16	0	0	1	-360	360	7.1003	1.6339	-6.9517	-1.3552	0.0000	0.0000	0.0000	0.0000;
	29	30	0.24	0.45	0	16	16	16	0	0	1	-360	360	3.6786	0.6015	-3.6483	-0.5448	0.0000	0.0000	0.0000	0.0000;
	8	28	0.06	0.2	0.02	32	32	32	0	0	1	-360	360	-6.3500	-8.9941	6.4182	7.3263	0.0000	0.0000	0.0000	0.0000;
	6	28	0.02	0.06	0.01	32	32	32	0	0	1	-360	360	-5.2938	-14.1878	5.3393	13.3660	0.0000	0.0000	0.0000	0.0000;
];

%%-----  OPF Data  -----%%
%% generator cost data
%	1	startup	shutdown	n	x1	y1	...	xn	yn
%	2	startup	shutdown	n	c(n-1)	...	c0
mpc.gencost = [
	1	0	0	4	0	0	12	144	36	1008	60	2832;
	1	0	0	4	0	0	12	240	36	1296	60	3312;
	1	0	0	4	0	0	12	240	36	1296	60	3312;
	1	0	0	4	0	0	12	144	36	1008	60	2832;
	1	0	0	4	0	0	12	240	36	1296	60	3312;
	1	0	0	4	0	0	12	144	36	1008	60	2832;
];
